 101490.00     304.17    15.6084
     0.00    304.17    15.6084      -2.200       1.200   101490.0
    50.00    304.21    15.6186      -2.513       0.745   100931.7
   154.47    304.30    15.6400      -2.620      -0.071    99763.4
   268.27    304.40    15.6639      -1.215      -0.589    98502.7
   392.24    304.51    15.6611       0.264      -1.082    97143.7
   527.29    304.63    15.4630       1.529      -1.151    95679.4
   674.41    304.76    15.2166       2.568      -1.272    94102.9
   834.68    304.90    14.8821       2.971      -1.507    92406.9
  1009.26    305.06    14.5790       3.842      -1.090    90584.3
  1199.45    305.23    14.0507       4.846      -0.806    88628.2
  1406.63    305.41    13.1287       5.756      -1.144    86531.8
  1632.33    305.61    12.2622       6.522      -1.408    84288.3
  1875.00    305.90    11.2782       6.867      -0.674    81923.5
  2125.00    306.98     9.7771       7.671      -0.424    79543.0
  2375.00    308.07     9.6103       6.801      -1.610    77220.5
  2625.00    309.16     9.2411       6.630      -2.956    74952.1
  2875.00    310.26     8.1802       5.601      -2.437    72738.4
  3125.00    311.36     6.9779       6.208      -3.605    70581.1
  3375.00    312.46     6.3385       4.353      -5.650    68479.1
  3625.00    313.57     6.1404       2.716      -6.426    66428.5
  3875.00    314.67     5.7854       3.760      -4.567    64425.7
  4125.00    315.78     5.2681       4.750      -3.897    62471.0
  4375.00    316.89     4.6582       4.878      -3.748    60563.7
  4625.00    318.00     4.0522       4.742      -3.060    58704.4
  4875.00    319.11     3.6688       4.212      -2.355    56895.5
  5125.00    320.22     3.4430       3.561      -1.848    55134.3
  5375.00    321.33     3.1795       3.111      -0.210    53416.5
  5625.00    322.44     3.2198       2.319       1.024    51741.6
  5875.00    323.56     3.2498       1.049       1.765    50109.4
  6125.00    324.67     2.9569       1.614       1.832    48518.6
  6375.00    325.79     2.5809       2.340       0.202    46969.2
  6625.00    326.90     2.0799       2.937      -1.989    45460.9
  6875.00    328.02     1.7933       3.168      -3.817    43993.0
  7125.00    329.14     1.7813       2.531      -4.952    42564.6
  7375.00    330.25     1.7622       0.399      -4.450    41174.9
  7625.00    331.37     1.7014      -1.802      -3.766    39824.4
  7875.00    332.49     1.6066      -2.376      -3.304    38512.0
  8125.00    333.61     1.4065      -3.985      -2.561    37236.1
  8375.00    334.73     1.2715      -4.633      -1.943    35995.4
  8625.00    335.85     1.0192      -4.625      -0.462    34789.4
  8875.00    336.97     0.6989      -4.887       0.040    33616.9
  9125.00    338.09     0.4924      -4.550      -0.910    32476.0
  9375.00    339.21     0.4293      -4.578      -1.068    31365.4
  9625.00    340.33     0.4372      -5.394       0.727    30283.8
  9875.00    341.45     0.4398      -5.966       3.186    29230.4
 10125.00    342.57     0.4056      -5.350       2.443    28205.3
 10383.75    343.73     0.3026      -5.124       0.134    27173.8
 10660.61    344.98     0.2168      -6.545       0.273    26102.7
 10956.86    346.31     0.1586      -7.389       0.994    24992.9
 11273.83    347.73     0.0959      -8.164       0.434    23844.8
 11613.00    349.26     0.0716      -9.592      -1.064    22659.5
 11975.91    350.89     0.0657     -14.204      -2.671    21440.2
 12364.23    352.64     0.0489     -17.315      -5.804    20191.2
 12779.72    354.50     0.0302     -16.964      -7.077    18916.1
 13224.30    356.51     0.0185     -19.141      -6.771    17620.0
 13700.01    358.65     0.0117     -21.438      -3.034    16310.7
 14209.01    363.47     0.0067     -14.623       0.901    14996.0
 14753.64    372.66     0.0047      -6.367      -2.786    13687.8
 15336.39    382.75     0.0047      -6.367      -2.786    12406.9
 15959.94    393.85     0.0047      -6.367      -2.786    11168.8
 16627.14    406.09     0.0047      -6.367      -2.786     9980.6
