 &time_control
 run_days                            = 0,
 run_hours                           = 0,
 run_minutes                         = 60,
 run_seconds                         = 0,
 start_year                          = 0001, 0001, 0001,
 start_month                         = 01,   01,   01,
 start_day                           = 01,   01,   01,
 start_hour                          = 00,   00,   00,
 start_minute                        = 00,   00,   00,
 start_second                        = 00,   00,   00,
 end_year                            = 0001, 0001, 0001,
 end_month                           = 01,   01,   01,
 end_day                             = 01,   01,   01,
 end_hour                            = 00,   00,   00,
 end_minute                          = 120,  120,  120,
 end_second                          = 00,   00,   00,
 history_interval                    = 2,   10,   10,
 frames_per_outfile                  = 1000, 1000, 1000,
 ! restart                             = .true.,
 restart                             = .false.,
 restart_interval                    =   115,
 io_form_history                     = 2
 io_form_restart                     = 2
 io_form_input                       = 2
 io_form_boundary                    = 2
 debug_level                         = 0
! override_restart_timers = .true.
 iofields_filename                   = "forecast_vars_d01.txt"
 /

 &domains
 time_step                           =  4,
 time_step_fract_num                 = 0,
 time_step_fract_den                 = 1,
 max_dom                             = 1,
 s_we                                = 1,     1,     1,
 e_we                                =  81,   43,    43,
 s_sn                                = 1,     1,     1,
 e_sn                                =  61,   43,    43,
 s_vert                              = 1,     1,     1,
 e_vert                              = 61,    41,    41,
 dx                                  =  500,  666.6666667, 222.2222222
 dy                                  =  500,  666.6666667, 222.2222222
 ztop                                = 24000, 20000, 20000,
 grid_id                             = 1,     2,     3,
 parent_id                           = 0,     1,     2,
 i_parent_start                      = 0,     15,    15,
 j_parent_start                      = 0,     15,    15,
 parent_grid_ratio                   = 1,     3,     3,
 parent_time_step_ratio              = 1,     3,     3,
 feedback                            = 1,
 smooth_option                       = 0
 /

 &physics
 NUM_LAND_CAT = 21,
 mp_physics                          = 18,     1,     1,
! sbm_diagnostics = 1,
 elec_physics                        = 1,
! sbm_elec                            = 1,
 nssl_ipelec                         = 3,
 nssl_cccn                           = 0.4e9,
 nssl_isaund                         = 12, ! 1,
 nssl_iscreen                        = 1,
 nssl_idischarge                     = 1,
 nssl_ibrkd                          = 4,
 NSSL_LIGHTRAD                       = 6000.,
! dust_emis                           = 1,
! sbm_dust_calculations = 1, 1,
! num_dust_src_bins = 5
 ra_lw_physics                       = 0,     0,     0,
 ra_sw_physics                       = 0,     0,     0,
 radt                                = 30,    30,    30,
 sf_sfclay_physics                   = 0,     0,     0,
 sf_surface_physics                  = 0,     0,     0,
 bl_pbl_physics                      = 0,     0,     0,
 bldt                                = 0,     0,     0,
 cu_physics                          = 0,     0,     0,
 cudt                                = 5,     5,     5,
 num_soil_layers                     = 5,
 /

 &fdda
 /

 &dynamics
 ! hybrid_opt                          = 0, 
 rk_ord                              = 3,
 diff_opt                            = 2,      2,      2,
 km_opt                              = 2,      2,      2,
 damp_opt                            = 2,
 zdamp                               = 5000.,  5000.,  5000.,
 dampcoef                            = 0.003,  0.003,  0.003
 khdif                               = 500,    500,    500,
 kvdif                               = 500,    500,    500,
 smdiv                               = 0.1,    0.1,    0.1,
 emdiv                               = 0.01,   0.01,   0.01,
 epssm                               = 0.1,    0.1,    0.1
 time_step_sound                     = 6,      6,      6,
 h_mom_adv_order                     = 5,      5,      5,
 v_mom_adv_order                     = 3,      3,      3,
 h_sca_adv_order                     = 5,      5,      5,
 v_sca_adv_order                     = 3,      3,      3,
 moist_adv_opt                       = 4,      1,      1,     
 scalar_adv_opt                      = 3,      1,      1,     
 tracer_adv_opt                      = 3,      1,      1,     
 chem_adv_opt                        = 3,      1,      1,     
 tke_adv_opt                         = 3,      1,      1,     
 non_hydrostatic                     = .true., .true., .true.,
 mix_full_fields                     = .true., .true., .true.,
 /

 &bdy_control
 periodic_x                          = .false.,.false.,.false.,
 symmetric_xs                        = .false.,.false.,.false.,
 symmetric_xe                        = .false.,.false.,.false.,
 open_xs                             = .true., .false.,.false.,
 open_xe                             = .true., .false.,.false.,
 periodic_y                          = .false.,.false.,.false.,
 symmetric_ys                        = .false.,.false.,.false.,
 symmetric_ye                        = .false.,.false.,.false.,
 open_ys                             = .true., .false.,.false.,
 open_ye                             = .true., .false.,.false.,
 nested                              = .false., .true., .true.,
 /

 &grib2
 /

 &namelist_quilt
 nio_tasks_per_group = 0,
 nio_groups = 1,
 /

&nssl_mp_params
  nonigrd = 0
  restoreccn = .true.
  icdx   = 6,
  icdxhl = 6,
  ehw0  = 0.9,
  ehlw0 = 0.9,
  snowfallfac = 1.25,
  icefallfac = 1.5,
  ehimin = 0.0
  ehs0   = 0.0
/

&init_ideal
 USE_SND_ZLEVELS = .true.,
 ugrid = 4.0,
 vgrid = -1.0,
 delt = 1.5,
 nxc = 44,
 nyc = 30,
 xradbub = 7000.,
 yradbub = 7000.,
 zradbub = 1400.,
! bubbletype = 2,
/

