&time_control
 run_days                            = 1,
 run_hours                           = 6,
 run_minutes                         = 0,
 run_seconds                         = 0,
 start_year                          = 2014, 2014, 
 start_month                         = 09, 09, 
 start_day                           = 27, 27,
 start_hour                          = 18, 18, 
 start_minute                        = 00, 00, 
 start_second                        = 00, 00, 
 end_year                            = 2014, 2014,
 end_month                           = 09, 09, 
 end_day                             = 29, 29, 
 end_hour                            = 00, 00, 
 end_minute                          = 00, 00, 
 end_second                          = 00, 00, 
 interval_seconds                    = 21600
 input_from_file                     = .true.,.true.,
 history_interval                    =  10,  10, 
 frames_per_outfile                  =  72,  36, 
 restart                             = .false.,
 restart_interval                    = 20000,
 io_form_history                     = 2
 io_form_restart                     = 2
 io_form_input                       = 2
 io_form_boundary                    = 2
! debug_level                         = 100
 /

 &domains
 time_step                           = 15,
 time_step_fract_num                 = 0,
 time_step_fract_den                 = 1,
 max_dom                             = 1,
 s_we                                = 1,     1,   
 e_we                                = 241,  241, 
 s_sn                                = 1,     1,   
 e_sn                                = 202,  202,  
 s_vert                              = 1,     1,  
 e_vert                              = 30,   30,
 dx                                  = 3000,   3000, 
 dy                                  = 3000,   3000, 
 grid_id                             = 1,     2,   
 parent_id                           = 0,     1,  
 i_parent_start                      = 0,    22,  
 j_parent_start                      = 0,    16,  
 parent_grid_ratio                   = 1,    3, 
 parent_time_step_ratio              = 1,    3, 
 feedback                            = 1,
 smooth_option                       = 0,
 hypsometric_opt                     = 2,
 num_metgrid_levels                  = 27,
 num_metgrid_soil_levels             = 4,
 p_top_requested                     = 5000,
/

 &physics
 mp_physics                          = 17,   17,
 elec_physics                        = 1,
 nssl_ipelec                         = 3,     2, 
 nssl_idischarge                     = 1,
 nssl_isaund                         = 4, 
 nssl_iscreen                        = 0,  
 gsfcgce_hail                        = 0,    
 gsfcgce_2ice                        = 0,     
 ra_lw_physics                       = 1,     1,
 ra_sw_physics                       = 1,     1, 
 radt                                = 3,     9,   
 sf_sfclay_physics                   = 2,     2,  
 sf_surface_physics                  = 2,     2,  
 bl_pbl_physics                      = 2,     2,  
 bldt                                = 0,     0,  
 cu_physics                          = 0,     0,   
 cudt                                = 0,     0,  
 surface_input_source                = 1,
 num_soil_layers                     = 4,
 maxiens                             = 1,
 maxens                              = 3,
 maxens2                             = 3,
 maxens3                             = 16,
 ensdim                              = 144,
 /

 &fdda
 /


 &dynamics
 w_damping                           = 1,
 diff_opt                            = 1,
 km_opt                              = 4,
 diff_6th_opt                        = 1,
 diff_6th_factor                     = 0.12,
 damp_opt                            = 3,
 base_temp                           = 290.
 zdamp                               = 5000.,  5000.,
 dampcoef                            = 0.2,    0.2,  
 khdif                               = 0,     500,  
 kvdif                               = 0,     500, 
 non_hydrostatic                     = .true., .true., 
 time_step_sound                     = 6,      6,  
 h_mom_adv_order                     = 5,      5,   
 v_mom_adv_order                     = 5,      5,  
 h_sca_adv_order                     = 5,      5,  
 v_sca_adv_order                     = 5,      5,  
 moist_adv_opt                       = 3,
 scalar_adv_opt                      = 3,
 momentum_adv_opt                    = 3,
 chem_adv_opt                        = 3,
 tke_adv_opt                         = 3,
/

 &bdy_control
 spec_bdy_width                      = 5,
 spec_zone                           = 1,
 relax_zone                          = 4,
 specified                           = .true.,
 nested                              = .false., .true.,
 /

 &grib2
 /

 &namelist_quilt
 nio_tasks_per_group = 0,
 nio_groups = 1,
 /
